[General]
network = Network
sim-time-limit = 200s

Network.node[{0,2}].app.interArrivalTime = exponential(1)
Network.node[{0,2}].app.destination = 5
Network.node[{0,2}].app.packetByteSize = 125000